25320
desktop-computers
nav_new
25318
56331
25326
San_Antonio
stratics
Ottawa
Charlotte
gencon
_360
journal2
mclean
Camino
_184
publications2
view_news
plus_icon
_1287
pollarchive
Nashville
Mumbai
garnett
chris_mannix
conception
_1250
iacrlogo
confession
money-laundering
mechanize
vallent
front_screens
seahawks
turn
most_wanted
head_search
rightnow
wx_contents
funny_pictures
SAmerica
CAmerica
frct
NAmerica
pcb
14987
happybday
refactoring
screensh
no-flash
maillst2
papacy
blocks2
gbl
snoopdogg
coupe
business-opportunities
002348
0596002106
150533
Best_Friends
AutoCAD
Maya
double
Christmas-Countdown
Bs
spells
openoffice-org
Polygon
zalman
en-CA
002342
002343
53925
ipod-nano
002344
subfeatures
account-new_user
002345
Topic12
gettingtested
blum
home6
rothman
camap
142324
10376
runalyzer
AR2006120501342
pcf
Screensaver
tinyjeff
radialpoint
reviewrequest
newscast
S01
S02
onlineshop
S04
S09
PRODUCTS
BUYNOW
safesex
home_products
watersport
solarwolf
tourney
boilies
enterprise-df1
CorporateLicenseAgreement
professional-df1
plus-df1
personal-df1
plus2
header_terms
8322
elves
servers_storage
8316
editors_blog
cowboy
8331
8320
8321
title_events
transcom
jsref
SQLite
11916
11919
JillSample
sessionh
11921
itsshowtime
bulletinsandadvisories
swdist
HDTVs
Female_Celebrities
120x90_bg2
0596009208
CareerVideos
Bootstrap
2168813
Cookware_Sets
smb-collaboration
sys_mgmt
Building Materials
Coatings
article103
67204
desktopdeployment
121106nutter
Male_Celebrities
netflash_archive
Glitter_Words
netflash-Fri
google-sitemaps
bannerfarm
gcp
11927
office-products
11928
banner88
showandtell
readerrequest
nitn
netflash-Sat
netflash-Sun
PC_Hardware
16268
Bling!
2170497
11922
11925
11926
netflash-Tue
MusicalInstruments
info_request
onscreen
netflash-Mon
testerschallenge
faqs_sales
callus
Product_Finder
For_Home
Space1
Art1
mga
TopDownloads
download-purchase
pubinfo
optical_drives
113006-fsecure
2006011101
faqs_reseller
certified_partners
premium_partners
spydoc70x70
LavasoftCompanyProfile
dvdxsoft70x70
Wong
2006070601
37757
search97cgi
adobe_indesign
111306-ksr
password_reminder
p80
NavBar
bt01
12297
contactbut
warpCNN
index_cp
2169960
N_frame
fpga
Cooler
AudioComposers
product_family
barks
overloading
chars
qotw
anews
S26
edmunds
spyware_statistics
NewDesign
virtumonde_remover
vx2_cleaner
35828
35827
8330
Reel
35826
35824
35823
chip3
valueclick
activites
sc-news1
filespecs
uncomplicate
lsp_explorer
messenger-control
oew_messengerctrl
jetaudio
tweak_se
8329
soluciones
colocated
colocatie
spyware_history
IDP
cbb
sp5
vendor_inquiries
reaper
wsm
contact_new
spyware_glossary
threat_analysis
8326
tekst
osdl_cuts
35822
ls-kid195
business_books
8407
35819
novell-logo
26996
beginning_hibernate
minimizer
beta_applications
nl-NL
biomed
Watermarking
125961
nufw
bluepixel
125963
125897
01323
26146
kerckhoffs
121742
122775
t344
opowiadam
eby
itrade
t2578
bourne
84507
plife
petal
144172
t338
15922
hcard
orange-slice
RegVac
naja
talkingheads
144167
125958
erotic_fantasy
144169
randki
b04
b05
144168
Peru
144170
stare_samochody
man-db
125612
mygale
124658
Baza
Girly
t353
icn_phone
mp3list
moriarty
mofo
moas
fincen
1_120
124738
ils
tpb
multimedialne
iterm
125762
t312
tennacles
45510
fmc
soya3d
t320
set1
73112
internetowe
125651
przek
121960
117376
20060201
t3113
m_logo
antywirusowe
125831
issa_logo
125400
biurowe
73234
systemowe
rssmixtape
icn_gc
python-crack
rete
intensive
osiagniecia
pyodbc
pygsear
144764
pygmalion
py-rrdtool
phpscripts
holidays2006
hewitt
74518
24758
technology-partners
74687
pyweb
mmr
pho
optimark
126021
osr
viewrecording1
ma1
g-wrap
180solutions
bassmod
43788
11414
242713
scf
freefont
242715
242716
242717
album12
leadgen
242710
242712
formslogin
digi
kbi
quixtar
Sanitarium
8a5b
10052006
242707
myfashion
friki
242709
242711
242718
242719
003843
11485
25282
119233
t437
101728
24348
cryptonit
oscon2004
album05
242722
1999-September
BBS
242721
242723
060314
gambit
cnet_big
kig
23456
wphit_100x54-2
kairo
arrow_l
windowshosting
unixhosting
t378
ste
janosik
gmulogo
t3854
South Korea
t371
addserv
t363
private_banking
t368
corporate_banking
NAT
phonebank
pillars
soloxr
platinum_mastercard
lget
Corner
t386
commentform
t388
Grace
esm7installation
t40
article_list
hdr_testimonials
gforge
genpasswd
mya
btn_addtocart
blazers
esm7rpinstallation
esm7rpmanual
hangul
9420
timesleader
gworkspace
techrep
t1525
t391
gug-nixal
t392
staticseal_gd
iNetFormFiller
gcjwebplugin
spamzapper
MLS
GetPage
partner_login
ServerAdministrator
billy
65582
ccsr
usearch
queries
wsindex
Ostrich
lostpassflat
disrupt
InfraGardsml
kingdom
techrev
StoreCatalogDisplay
xboard
store_access
MS06-055
MS06-060
MS06-058
MS06-057
fsis2007
1up_mushroom
publicart
post-details
http%3A%2F%2Fblog
todaysnews
103381
py01
vdb
box_bot
py02
masthead4
masthead3
py03
t2613
us-news
tripplanner
tuse
ProductOverview
103385
win_xp
103390
103403
order_now
shell01
shell02
103406
pcig
py04
82396
82386
69812
aug02
p91
lorenz
15050
t2694
perldocjp
cybersec
Summaries
baworldsex
info-reklama
bursar
69807
marco
rags
uploadedfiles
net_sites
70s
President
governors
fleisch
internet_safety
boilerplate
financial_crimes
82338
mcd
aab
Midwest
22782
fnp
wielcy_malarze
16635
14308
xiao
isb
wardb
descript
st2
t301
vsd
t3015
t3016
Nederland
display2
belair_web
Amerika
5starsaward
kartka
t309
sub_title
anonse
flash_area
topdown
11647
annoucement_alt
komiks
finn
ZillaFTP
75270
netcom
18369
24728
eldred
satellite-radio
public-service
104318
LinuX_ZoNe
GNUnet
UnderPL
info-nasze_bannery
information_assurance
USAToday
mll2html
shishi
slider
qexo
pth
perljvm
paperclips
progimages
esolutions
legalresources
t2964
cryptcat
24370
parametric
xpt
xmms2
recomm
xmldiff
t3003
t3005
t3006
t3009
29997
30024
juan
fhp
t2882
speaker_series
msnshell
encyklopedia
rrs-1
reverb
awacs
auctex
releases_2004
25009
ctn
user-increase
eventcal
icon_collapse
phpinit
trackers
infodata
koelkast
wasmachine
cvc
prijsvragen
ourpartners
btndownload
diepvriezer
dvl
songbook
qas
polycom
ellen
morevideo
mostwant
staples
Previous
okazje
przedmioty
careerportal
municipal-wireless
topemployers
86026
loan_home
Promote
Mitarbeiter
Plone
p_logo
t568
82618
msg00237
Contact_WWW
Contact_Blog
82620
Button_Top
Contact_OffLine
free-2
16662
84358
73090
insurance_home
msg00232
Missing
kreator
ih
mapimage
01403
chartered
icon_subscribe
Misc_PostDate
user-decrease
22570
30487
omnie
21334
arrow-top
24081
23760
21255
30483
Press%20Releases
arn
uug
Teachers
marketplace5
23041
Southeast
torun
godik
Guestbook
sexualhealth
dietandfitness
ThirdParty
30313
cognio_150a
spnew
RAR
gtaut
sparen
order2
gtacomua
16791
le2
emailtips
milosc
but-xhtml10
24740
12days
defenselink
gtap
24741
spiketv
ictshop
winkel
commtouch_logo
mainregister
IntheNews
3647301
eizo
huishoudelijk
pch
veryhotthread
hotthread
user-reset
jh
about_header
products_on
msg00255
solutions_header
20320
20110
19621
19523
msg00258
20454
19793
msg00260
19289
mediacontact
connectkentucky
buybizopt
19980
20337
19743
lang-de
12279
19582
mail_servers
20322
healthandfitness
19531
19982
19358
11535
msg00273
24686
msg00274
msg00275
tn-security
BBSLISTS
logiciel
20485
20296
19402
000262
arrow-down
msg00285
20336
19902
press_header
only
8888
werkgevers
solutionbank
montage
20844
20212
msg00265
20386
SpecialReports
13926
20345
logo-right
nimgs
smart_card
msg00240
b1_off
Corp
print_01
RoHS
bullet_l03
wave_l04
webmasteremail
wave_a04
b4_off
b6_off
msg00238
rapidget
82619
82621
Misc_Rating1
Misc_Rating2
Misc_Rating3
Misc_Rating4
82637
Misc_Rating5
Milestone
82642
openpcd
elcom_vertical
ct_sync
19985
6127
19965
123456
8475
8593
8597
8862
9358
cao
18460
testsuite
90x40_3
top_line
key_hole
avisolegal
text_pass
9035
9947
Negocios
tech_partners
8654
top_grad
9112
sop
14839
56792
11491
23767
creative-writing
wiw
GameBoost
VDownloader
Orange
hackattack
trooper
transparentlogo
22819
Scanner
pwrecover
t50
Bird
11408
6v
6t
t5005
003201
multifunction
002109
56794
redlib
sfd-partner
Xfire
22821
Mitac
30414
star400
30684
star500
permissionform
TweakMaster
30530
25303
t510
21235
go_search
23097
22988
21479
15233
21213
productsurvey
21256
23058
23029
22817
30502
logo_rss
21238
30434
001152
Sagem
acrobot
127074
acml
accwhizz
001947
9box
7pages
magazinearticle
84828
52472
adabot
adaldap
bnf
biborb
t4586
002121
atdot
conteudo
animate
t47
23745
adgmix
adgali
039933
kropki
JetAudio
QC
phi
AutoMate
AnyReader
11379
dirtydozq306
040051
ico_categ
Deep
11406
Pack
85040
loep
tml
FIN
protocol-numbers
Yahtzee
1728689397
political-spam
cisco_iptv
53488
624292461
sweat
11489
CloneDVD2
Sendo
30661
30508
21303
0131865056
godban
050125
24748
24747
displayevent
pobieralniaorg
vmarketbut
21282
Linux_Distributions
21280
cPicture
24080
199801
199804
b_content
30462
